@<TRIPOS>MOLECULE
*****
 89 91 0 0 0
SMALL
GASTEIGER

@<TRIPOS>ATOM
      1 C          20.4638   -2.2995   -5.6396 C.3     1  UNL1        0.0044
      2 C          19.6211   -3.4135   -6.1941 C.2     1  UNL1        0.1864
      3 O          19.5026   -4.5039   -5.6567 O.2     1  UNL1       -0.2855
      4 S          18.8227   -3.0199   -7.7132 S.3     1  UNL1       -0.0869
      5 C          17.9211   -4.5759   -7.9846 C.3     1  UNL1        0.0165
      6 C          17.1785   -4.5298   -9.3178 C.3     1  UNL1        0.0210
      7 N          16.4435   -5.7544   -9.5879 N.am    1  UNL1       -0.3145
      8 C          15.6600   -5.8662  -10.7160 C.2     1  UNL1        0.2145
      9 O          15.5038   -4.9578  -11.5250 O.2     1  UNL1       -0.2758
     10 C          14.9593   -7.1955  -10.8603 C.3     1  UNL1        0.0395
     11 C          13.7716   -7.2337   -9.9190 C.3     1  UNL1        0.0199
     12 N          13.0714   -8.5029   -9.9463 N.am    1  UNL1       -0.3127
     13 C          12.1287   -8.7653   -8.9689 C.2     1  UNL1        0.2423
     14 O          11.8988   -7.9836   -8.0521 O.2     1  UNL1       -0.2730
     15 C          11.4160  -10.1265   -9.1466 C.3     1  UNL1        0.1380
     16 C          10.5928  -10.6069   -7.9093 C.3     1  UNL1        0.0235
     17 C           9.3757   -9.7029   -7.6214 C.3     1  UNL1       -0.0549
     18 C          10.0355  -12.0201   -8.1926 C.3     1  UNL1       -0.0549
     19 C          11.5480  -10.6506   -6.6867 C.3     1  UNL1        0.0670
     20 O          10.9876  -11.3048   -5.5593 O.3     1  UNL1       -0.2857
     21 P          11.6945  -10.9851   -4.1444 P.3     1  UNL1        0.4834
     22 O          13.1119  -10.5271   -4.2289 O.2     1  UNL1       -0.2269
     23 O          10.7148   -9.8753   -3.5422 O.3     1  UNL1       -0.3022
     24 O          11.4439  -12.2782   -3.2649 O.3     1  UNL1       -0.1861
     25 P          11.8104  -12.3947   -1.7302 P.3     1  UNL1        0.4835
     26 O          11.7203  -11.1572   -0.9040 O.2     1  UNL1       -0.2269
     27 O          10.7810  -13.5407   -1.2702 O.3     1  UNL1       -0.3022
     28 O          13.2095  -13.1970   -1.6120 O.3     1  UNL1       -0.2837
     29 C          13.6251  -13.4247   -0.2632 C.3     1  UNL1        0.0879
     30 C          14.8089  -14.3835   -0.1452 C.3     1  UNL1        0.1142
     31 C          16.1223  -13.8546   -0.6989 C.3     1  UNL1        0.1283
     32 C          16.9022  -15.1506   -0.8864 C.3     1  UNL1        0.1294
     33 C          15.8078  -16.1062   -1.3876 C.3     1  UNL1        0.1667
     34 O          14.5565  -15.6400   -0.8075 O.3     1  UNL1       -0.3456
     35 N          15.6752  -16.1647   -2.8311 N.ar    1  UNL1       -0.2855
     36 C          14.5639  -15.8876   -3.5811 C.ar    1  UNL1        0.1004
     37 N          14.7792  -16.0609   -4.8690 N.ar    1  UNL1       -0.2306
     38 C          16.0843  -16.5013   -4.9514 C.ar    1  UNL1        0.1473
     39 C          16.9025  -16.8579   -6.0362 C.ar    1  UNL1        0.1472
     40 N          18.1814  -17.2225   -5.7884 N.ar    1  UNL1       -0.2188
     41 C          18.6013  -17.2595   -4.5052 C.ar    1  UNL1        0.1205
     42 N          17.9078  -16.9543   -3.3894 N.ar    1  UNL1       -0.2159
     43 C          16.6563  -16.5759   -3.6928 C.ar    1  UNL1        0.1674
     44 N          16.4706  -16.8309   -7.3560 N.pl3   1  UNL1       -0.3413
     45 O          17.4572  -15.6153    0.3608 O.3     1  UNL1       -0.3846
     46 O          16.7378  -12.9750    0.2223 O.3     1  UNL1       -0.2780
     47 P          17.7841  -11.9116   -0.3504 P.3     1  UNL1        0.4728
     48 O          17.2805  -10.9986   -1.4093 O.2     1  UNL1       -0.2275
     49 O          18.3612  -11.2161    0.9609 O.3     1  UNL1       -0.3026
     50 O          19.0457  -12.7632   -0.8216 O.3     1  UNL1       -0.3026
     51 O          10.6440  -10.0934  -10.3490 O.3     1  UNL1       -0.3820
     52 H          20.9011   -2.6168   -4.6884 H       1  UNL1        0.0315
     53 H          19.8500   -1.4131   -5.4574 H       1  UNL1        0.0315
     54 H          21.2763   -2.0610   -6.3314 H       1  UNL1        0.0315
     55 H          17.2127   -4.7353   -7.1639 H       1  UNL1        0.0396
     56 H          18.6283   -5.4128   -7.9860 H       1  UNL1        0.0396
     57 H          17.8768   -4.3820  -10.1501 H       1  UNL1        0.0470
     58 H          16.4572   -3.7036   -9.3348 H       1  UNL1        0.0470
     59 H          16.6422   -6.5824   -9.0386 H       1  UNL1        0.1487
     60 H          15.6641   -8.0077  -10.6490 H       1  UNL1        0.0374
     61 H          14.6365   -7.3163  -11.9006 H       1  UNL1        0.0374
     62 H          13.0484   -6.4481  -10.1663 H       1  UNL1        0.0467
     63 H          14.0968   -7.0528   -8.8866 H       1  UNL1        0.0467
     64 H          12.9350   -8.9829  -10.8319 H       1  UNL1        0.1488
     65 H          12.2123  -10.8626   -9.3237 H       1  UNL1        0.0696
     66 H           8.6973   -9.6542   -8.4812 H       1  UNL1        0.0237
     67 H           9.6670   -8.6786   -7.3739 H       1  UNL1        0.0237
     68 H           8.7940  -10.0825   -6.7739 H       1  UNL1        0.0237
     69 H           9.3907  -12.0271   -9.0793 H       1  UNL1        0.0237
     70 H           9.4323  -12.3878   -7.3548 H       1  UNL1        0.0237
     71 H          10.8448  -12.7381   -8.3609 H       1  UNL1        0.0237
     72 H          11.8345   -9.6366   -6.3890 H       1  UNL1        0.0572
     73 H          12.4633  -11.1943   -6.9536 H       1  UNL1        0.0572
     74 H          11.1029   -8.9822   -3.6006 H       1  UNL1        0.2220
     75 H          10.8096  -14.3041   -1.8731 H       1  UNL1        0.2220
     76 H          12.7814  -13.8620    0.2823 H       1  UNL1        0.0592
     77 H          13.8743  -12.4629    0.1983 H       1  UNL1        0.0592
     78 H          14.9254  -14.6032    0.9248 H       1  UNL1        0.0647
     79 H          15.9616  -13.3662   -1.6678 H       1  UNL1        0.0656
     80 H          17.7461  -15.0263   -1.5682 H       1  UNL1        0.0666
     81 H          15.9655  -17.1341   -1.0412 H       1  UNL1        0.0866
     82 H          13.6277  -15.5664   -3.1427 H       1  UNL1        0.1030
     83 H          19.6316  -17.5704   -4.3549 H       1  UNL1        0.1048
     84 H          15.6583  -16.2418   -7.5004 H       1  UNL1        0.1438
     85 H          17.2404  -16.7416   -8.0057 H       1  UNL1        0.1438
     86 H          16.7381  -15.8338    0.9781 H       1  UNL1        0.2101
     87 H          18.7008  -11.8782    1.5890 H       1  UNL1        0.2220
     88 H          19.6215  -12.2203   -1.3933 H       1  UNL1        0.2220
     89 H           9.9596   -9.4095  -10.2368 H       1  UNL1        0.2105
@<TRIPOS>BOND
     1     1     2    1
     2     2     3    2
     3     2     4    1
     4     4     5    1
     5     5     6    1
     6     6     7    1
     7     7     8   am
     8     8     9    2
     9     8    10    1
    10    10    11    1
    11    11    12    1
    12    12    13   am
    13    13    14    2
    14    13    15    1
    15    15    16    1
    16    16    17    1
    17    16    18    1
    18    16    19    1
    19    19    20    1
    20    20    21    1
    21    21    22    2
    22    21    23    1
    23    21    24    1
    24    24    25    1
    25    25    26    2
    26    25    27    1
    27    25    28    1
    28    28    29    1
    29    30    31    1
    30    31    32    1
    31    32    33    1
    32    33    34    1
    33    30    34    1
    34    35    36   ar
    35    36    37   ar
    36    37    38   ar
    37    38    39   ar
    38    39    40   ar
    39    40    41   ar
    40    41    42   ar
    41    42    43   ar
    42    38    43   ar
    43    35    43   ar
    44    39    44    1
    45    32    45    1
    46    46    47    1
    47    47    48    2
    48    47    49    1
    49    47    50    1
    50    15    51    1
    51    33    35    1
    52    29    30    1
    53    31    46    1
    54     1    52    1
    55     1    53    1
    56     1    54    1
    57     5    55    1
    58     5    56    1
    59     6    57    1
    60     6    58    1
    61     7    59    1
    62    10    60    1
    63    10    61    1
    64    11    62    1
    65    11    63    1
    66    12    64    1
    67    15    65    1
    68    17    66    1
    69    17    67    1
    70    17    68    1
    71    18    69    1
    72    18    70    1
    73    18    71    1
    74    19    72    1
    75    19    73    1
    76    23    74    1
    77    27    75    1
    78    29    76    1
    79    29    77    1
    80    30    78    1
    81    31    79    1
    82    32    80    1
    83    33    81    1
    84    36    82    1
    85    41    83    1
    86    44    84    1
    87    44    85    1
    88    45    86    1
    89    49    87    1
    90    50    88    1
    91    51    89    1
