@<TRIPOS>MOLECULE
*****
 92 94 0 0 0
SMALL
GASTEIGER

@<TRIPOS>ATOM
      1 C           3.4367   29.7644  -19.7283 C.3     1  UNL1       -0.0577
      2 C           3.8476   29.3830  -18.3170 C.3     1  UNL1        0.0134
      3 C           4.6795   28.1171  -18.2755 C.2     1  UNL1        0.1892
      4 O           5.0098   27.4631  -19.2546 O.2     1  UNL1       -0.2852
      5 S           5.1460   27.6502  -16.6390 S.3     1  UNL1       -0.0866
      6 C           6.1039   26.1437  -17.0026 C.3     1  UNL1        0.0165
      7 C           6.6836   25.5513  -15.7157 C.3     1  UNL1        0.0210
      8 N           5.6852   25.1694  -14.7512 N.am    1  UNL1       -0.3145
      9 C           6.0456   24.5842  -13.5395 C.2     1  UNL1        0.2145
     10 O           7.2110   24.3376  -13.2409 O.2     1  UNL1       -0.2758
     11 C           4.9126   24.2450  -12.6209 C.3     1  UNL1        0.0395
     12 C           3.9784   23.2115  -13.2178 C.3     1  UNL1        0.0199
     13 N           4.6618   21.9975  -13.6043 N.am    1  UNL1       -0.3127
     14 C           4.1925   21.2144  -14.6360 C.2     1  UNL1        0.2423
     15 O           3.2130   21.5175  -15.3173 O.2     1  UNL1       -0.2730
     16 C           4.9719   19.9062  -14.8915 C.3     1  UNL1        0.1380
     17 C           4.4011   18.7057  -14.0849 C.3     1  UNL1        0.0235
     18 C           4.6040   19.0479  -12.5917 C.3     1  UNL1       -0.0549
     19 C           2.9040   18.5252  -14.4323 C.3     1  UNL1       -0.0549
     20 C           5.2152   17.4325  -14.4808 C.3     1  UNL1        0.0670
     21 O           4.7793   16.2356  -13.8467 O.3     1  UNL1       -0.2857
     22 P           3.6027   15.4093  -14.5611 P.3     1  UNL1        0.4834
     23 O           3.0782   15.9229  -15.8567 O.2     1  UNL1       -0.2269
     24 O           4.2625   13.9625  -14.7964 O.3     1  UNL1       -0.3022
     25 O           2.5399   15.1001  -13.4483 O.3     1  UNL1       -0.1861
     26 P           2.0080   15.5768  -11.8726 P.3     1  UNL1        0.4835
     27 O           2.8811   14.4813  -11.2573 O.2     1  UNL1       -0.2269
     28 O           2.9583   16.8556  -11.8782 O.3     1  UNL1       -0.3022
     29 O           1.4762   16.0535  -10.2969 O.3     1  UNL1       -0.2837
     30 C           0.0590   15.5894  -10.3741 C.3     1  UNL1        0.0879
     31 C          -1.0134   16.2544  -11.3733 C.3     1  UNL1        0.1142
     32 C          -0.8694   16.4758  -12.9132 C.3     1  UNL1        0.1283
     33 C          -1.7228   17.7573  -13.1642 C.3     1  UNL1        0.1294
     34 C          -1.8374   18.4297  -11.7987 C.3     1  UNL1        0.1667
     35 O          -1.2333   17.5738  -10.8212 O.3     1  UNL1       -0.3456
     36 N          -1.2482   19.7702  -11.6811 N.ar    1  UNL1       -0.2855
     37 C          -0.1446   20.1240  -10.9559 C.ar    1  UNL1        0.1004
     38 N          -0.0734   21.4233  -10.7631 N.ar    1  UNL1       -0.2306
     39 C          -1.1782   21.9354  -11.4145 C.ar    1  UNL1        0.1473
     40 C          -1.6975   23.2337  -11.5019 C.ar    1  UNL1        0.1472
     41 N          -2.7737   23.4410  -12.2934 N.ar    1  UNL1       -0.2188
     42 C          -3.3308   22.3723  -12.9071 C.ar    1  UNL1        0.1205
     43 N          -2.9755   21.0688  -12.8206 N.ar    1  UNL1       -0.2159
     44 C          -1.8792   20.9295  -12.0611 C.ar    1  UNL1        0.1674
     45 N          -1.1652   24.2959  -10.7901 N.pl3   1  UNL1       -0.3413
     46 O          -2.9926   17.3816  -13.7272 O.3     1  UNL1       -0.3846
     47 O          -1.1877   15.3768  -13.9308 O.3     1  UNL1       -0.2780
     48 P          -1.0302   16.0850  -15.5014 P.3     1  UNL1        0.4728
     49 O           0.3354   16.6649  -15.1549 O.2     1  UNL1       -0.2275
     50 O          -0.7199   14.6327  -16.1569 O.3     1  UNL1       -0.3026
     51 O          -0.8727   16.7931  -17.0719 O.3     1  UNL1       -0.3026
     52 O           4.9647   19.6311  -16.2896 O.3     1  UNL1       -0.3820
     53 H           2.8406   30.6830  -19.7167 H       1  UNL1        0.0234
     54 H           2.8361   28.9742  -20.1900 H       1  UNL1        0.0234
     55 H           4.3135   29.9353  -20.3612 H       1  UNL1        0.0234
     56 H           2.9469   29.2313  -17.7115 H       1  UNL1        0.0348
     57 H           4.4307   30.2012  -17.8798 H       1  UNL1        0.0348
     58 H           6.9249   26.3866  -17.6863 H       1  UNL1        0.0396
     59 H           5.4504   25.4116  -17.4923 H       1  UNL1        0.0396
     60 H           7.3611   26.2668  -15.2294 H       1  UNL1        0.0470
     61 H           7.2740   24.6603  -15.9550 H       1  UNL1        0.0470
     62 H           4.7270   25.4581  -14.8888 H       1  UNL1        0.1487
     63 H           4.3631   25.1677  -12.3692 H       1  UNL1        0.0374
     64 H           5.3459   23.8668  -11.6835 H       1  UNL1        0.0374
     65 H           3.4587   23.6246  -14.0889 H       1  UNL1        0.0467
     66 H           3.2136   22.9338  -12.4863 H       1  UNL1        0.0467
     67 H           5.5037   21.7197  -13.1088 H       1  UNL1        0.1488
     68 H           6.0193   20.0615  -14.6088 H       1  UNL1        0.0696
     69 H           3.9382   19.8551  -12.2708 H       1  UNL1        0.0237
     70 H           5.6407   19.3343  -12.3936 H       1  UNL1        0.0237
     71 H           4.4468   18.2439  -11.8931 H       1  UNL1        0.0237
     72 H           2.2931   19.3801  -14.1299 H       1  UNL1        0.0237
     73 H           2.4467   17.6680  -13.9480 H       1  UNL1        0.0237
     74 H           2.7623   18.3881  -15.5106 H       1  UNL1        0.0237
     75 H           6.2628   17.5695  -14.1864 H       1  UNL1        0.0572
     76 H           5.2261   17.2748  -15.5648 H       1  UNL1        0.0572
     77 H           4.5430   13.5162  -13.9824 H       1  UNL1        0.2220
     78 H           3.8205   16.5260  -11.5559 H       1  UNL1        0.2220
     79 H          -0.3267   15.7091   -9.3580 H       1  UNL1        0.0592
     80 H           0.0861   14.5151  -10.5942 H       1  UNL1        0.0592
     81 H          -1.9399   15.6848  -11.2387 H       1  UNL1        0.0647
     82 H           0.1702   16.7802  -13.0475 H       1  UNL1        0.0656
     83 H          -1.2629   18.4246  -13.9035 H       1  UNL1        0.0666
     84 H          -2.8829   18.5617  -11.4954 H       1  UNL1        0.0866
     85 H           0.5485   19.3997  -10.5484 H       1  UNL1        0.1030
     86 H          -4.1831   22.5921  -13.5451 H       1  UNL1        0.1048
     87 H          -0.2347   24.1200  -10.4250 H       1  UNL1        0.1438
     88 H          -1.3709   25.2015  -11.1886 H       1  UNL1        0.1438
     89 H          -3.6887   17.4532  -13.0464 H       1  UNL1        0.2101
     90 H           0.2561   14.5691  -16.2306 H       1  UNL1        0.2220
     91 H          -1.7466   16.8997  -17.4851 H       1  UNL1        0.2220
     92 H           4.0632   19.8475  -16.6045 H       1  UNL1        0.2105
@<TRIPOS>BOND
     1     1     2    1
     2     2     3    1
     3     3     4    2
     4     3     5    1
     5     5     6    1
     6     6     7    1
     7     7     8    1
     8     8     9   am
     9     9    10    2
    10     9    11    1
    11    11    12    1
    12    12    13    1
    13    13    14   am
    14    14    15    2
    15    14    16    1
    16    16    17    1
    17    17    18    1
    18    17    19    1
    19    17    20    1
    20    20    21    1
    21    21    22    1
    22    22    23    2
    23    22    24    1
    24    22    25    1
    25    25    26    1
    26    26    27    2
    27    26    28    1
    28    26    29    1
    29    29    30    1
    30    31    32    1
    31    32    33    1
    32    33    34    1
    33    34    35    1
    34    31    35    1
    35    36    37   ar
    36    37    38   ar
    37    38    39   ar
    38    39    40   ar
    39    40    41   ar
    40    41    42   ar
    41    42    43   ar
    42    43    44   ar
    43    39    44   ar
    44    36    44   ar
    45    40    45    1
    46    33    46    1
    47    47    48    1
    48    48    49    2
    49    48    50    1
    50    48    51    1
    51    16    52    1
    52    34    36    1
    53    30    31    1
    54    32    47    1
    55     1    53    1
    56     1    54    1
    57     1    55    1
    58     2    56    1
    59     2    57    1
    60     6    58    1
    61     6    59    1
    62     7    60    1
    63     7    61    1
    64     8    62    1
    65    11    63    1
    66    11    64    1
    67    12    65    1
    68    12    66    1
    69    13    67    1
    70    16    68    1
    71    18    69    1
    72    18    70    1
    73    18    71    1
    74    19    72    1
    75    19    73    1
    76    19    74    1
    77    20    75    1
    78    20    76    1
    79    24    77    1
    80    28    78    1
    81    30    79    1
    82    30    80    1
    83    31    81    1
    84    32    82    1
    85    33    83    1
    86    34    84    1
    87    37    85    1
    88    42    86    1
    89    45    87    1
    90    45    88    1
    91    46    89    1
    92    50    90    1
    93    51    91    1
    94    52    92    1
